<?xml version="1.0" encoding="UTF-8"?>

<!-- generated on 2023-04-11 22:20:42 by Eclipse SUMO netedit Version 1.15.0
-->

<routes xmlns:xsi="http://www.w3.org/2001/XMLSchema-instance" xsi:noNamespaceSchemaLocation="http://sumo.dlr.de/xsd/routes_file.xsd">
    <!-- Routes -->
    <route id="r_0" edges="E1#1 E4#3"/>
    <route id="r_1" edges="E1#1 E1#2 E1#3"/>
    <route id="r_10" edges="E2#1 E2#2 E4#2 E4#3"/>
    <route id="r_11" edges="E2#1 E2#2 E4#2 E1#2 E1#3"/>
    <route id="r_12" edges="E4#1 E2#3"/>
    <route id="r_13" edges="E4#1 E4#2 E4#3"/>
    <route id="r_14" edges="E4#1 E4#2 E1#2 E1#3"/>
    <route id="r_15" edges="E4#1 E4#2 E1#2 E3#2 E3#3"/>
    <route id="r_2" edges="E1#1 E1#2 E3#2 E3#3"/>
    <route id="r_3" edges="E1#1 E1#2 E3#2 E2#2 E2#3"/>
    <route id="r_4" edges="E3#1 E1#3"/>
    <route id="r_5" edges="E3#1 E3#2 E3#3"/>
    <route id="r_6" edges="E3#1 E3#2 E2#2 E2#3"/>
    <route id="r_7" edges="E3#1 E3#2 E2#2 E4#2 E4#3"/>
    <route id="r_8" edges="E2#1 E3#3"/>
    <route id="r_9" edges="E2#1 E2#2 E2#3"/>
    <!-- Vehicles, persons and containers (sorted by depart) -->
    <flow id="f_0" begin="0.00" departLane="random" departSpeed="avg" route="r_0" end="3600.00" vehsPerHour="200.00"/>
    <flow id="f_1" begin="0.00" departLane="random" departSpeed="avg" route="r_1" end="3600.00" vehsPerHour="200.00"/>
    <flow id="f_10" begin="0.00" departLane="random" departSpeed="avg" color="green" route="r_10" end="3600.00" vehsPerHour="200.00"/>
    <flow id="f_11" begin="0.00" departLane="random" departSpeed="avg" color="green" route="r_11" end="3600.00" vehsPerHour="200.00"/>
    <flow id="f_12" begin="0.00" departLane="random" departSpeed="avg" color="magenta" route="r_12" end="3600.00" vehsPerHour="200.00"/>
    <flow id="f_13" begin="0.00" departLane="random" departSpeed="avg" color="magenta" route="r_13" end="3600.00" vehsPerHour="200.00"/>
    <flow id="f_14" begin="0.00" departLane="random" departSpeed="avg" color="magenta" route="r_14" end="3600.00" vehsPerHour="200.00"/>
    <flow id="f_15" begin="0.00" departLane="random" departSpeed="avg" color="magenta" route="r_15" end="3600.00" vehsPerHour="200.00"/>
    <flow id="f_2" begin="0.00" departLane="random" departSpeed="avg" route="r_2" end="3600.00" vehsPerHour="200.00"/>
    <flow id="f_3" begin="0.00" departLane="random" departSpeed="avg" route="r_3" end="3600.00" vehsPerHour="200.00"/>
    <flow id="f_4" begin="0.00" departLane="random" departSpeed="avg" color="cyan" route="r_4" end="3600.00" vehsPerHour="200.00"/>
    <flow id="f_5" begin="0.00" departLane="random" departSpeed="avg" color="cyan" route="r_5" end="3600.00" vehsPerHour="200.00"/>
    <flow id="f_6" begin="0.00" departLane="random" departSpeed="avg" color="cyan" route="r_6" end="3600.00" vehsPerHour="200.00"/>
    <flow id="f_7" begin="0.00" departLane="random" departSpeed="avg" color="cyan" route="r_7" end="3600.00" vehsPerHour="200.00"/>
    <flow id="f_8" begin="0.00" departLane="random" departSpeed="avg" color="green" route="r_8" end="3600.00" vehsPerHour="200.00"/>
    <flow id="f_9" begin="0.00" departLane="random" departSpeed="avg" color="green" route="r_9" end="3600.00" vehsPerHour="200.00"/>
</routes>
